%chk=s0.chk
%mem=1000mb
%nproc=1
#p wB97XD/def2TZVPP scf(conver=8,novaracc) opt(tight,MaxCycles=300) freq GFInput IOP(6/7=3)

keto optimization

0 1
N    -1.918573    -0.234846     0.000000
C    -1.504183    -1.531669     0.000000
N    -0.266540    -1.907265     0.000000
C     0.594338    -0.855766     0.000000
N     1.956841    -0.923809     0.000000
C     2.412975     0.371870     0.000000
N     1.448935     1.248961     0.000000
C     0.300100     0.503856     0.000000
C    -1.088905     0.923636     0.000000
O    -1.578964     2.025353     0.000000
H    -2.913671    -0.032981     0.000000
H    -2.299382    -2.284035     0.000000
H     3.478218     0.600984     0.000000
H     2.504004    -1.774656     0.000000
H     1.292699     2.552632     0.000000
O     0.624718     3.228133     0.000000
H    -0.315676     3.093375     0.000000

